omf/solvers/opendss/newmodel_VLN.Txt

SYMMETRICAL COMPONENT VOLTAGES BY BUS (for 3-phase buses)

Bus   Mag:   V1 (kV)    p.u.     V2 (kV)   %V2/V1    V0 (kV)    %V0/V1

bx       69.55      1.048  0.00004842  0.00006961  4.524E-9  6.505E-9
b0       7.237      1.005  0.0003572   0.004935 0.00002661 0.0003676
b1       7.268       1.01   0.007154    0.09843   0.00202    0.0278
b2       7.267      1.009    0.01262     0.1736  0.003609   0.04966
bm        7.27       1.01    0.01204     0.1656  0.003641   0.05008
b3       7.271       1.01    0.01764     0.2426  0.005259   0.07233
b4       7.238      1.005    0.02167     0.2994  0.006522   0.09011
b5       7.267      1.009    0.01261     0.1736  0.003608   0.04965
b6       7.271       1.01    0.01763     0.2425  0.005258   0.07232
b7       7.237      1.005  0.0003588   0.004958 0.00002639 0.0003646
bg      0.2779      1.003  0.0006854     0.2467 0.0002562   0.09219
bg2     0.2762     0.9968   0.000657     0.2379 0.0002562   0.09274
